2024_89_CemigReconfigurationCases/1_AlimsCemig/INPD215/INPD215SegmentosMT.dss
new line.TR10092503 bus1=BMT167513084.2,bus2=BMT4673097B.2,Phases=1,Linecode=CAB202_3_1,Length=0.045244000,Units=km
new line.TR10321179 bus1=BMT6553976B.2,bus2=BMT163183440.2,Phases=1,Linecode=CAB202_3_1,Length=0.039787000,Units=km
new line.TR10331378 bus1=BMT127274478.2,bus2=BMT127274485.2,Phases=1,Linecode=CAB203_3_1,Length=0.218441000,Units=km
new line.TR10332645 bus1=BMT153441108.3,bus2=BMT153441109.3,Phases=1,Linecode=CAB202_3_1,Length=0.315292000,Units=km
new line.TR10332652 bus1=BMT153441108.3,bus2=BMT153441110.3,Phases=1,Linecode=CAB202_3_1,Length=0.213064000,Units=km
new line.TR10332659 bus1=BMT158055833.1,bus2=BMT2101297B.1,Phases=1,Linecode=CAB202_3_1,Length=0.177662000,Units=km
new line.TR10332666 bus1=BMT158055833.1,bus2=BMT158055835.1,Phases=1,Linecode=CAB103_3_1,Length=0.037989000,Units=km
new line.TR10334514 bus1=BMT6574815B.2,bus2=BMT6574822B.2,Phases=1,Linecode=CAB202_3_1,Length=0.316040000,Units=km
new line.TR10334521 bus1=BMT6574822B.2,bus2=BMT127275934.2,Phases=1,Linecode=CAB202_3_1,Length=0.060166000,Units=km
new line.TR10847544 bus1=BMT127270558.3,bus2=BMT153446412.3,Phases=1,Linecode=CABA06_3_1,Length=0.031381000,Units=km
new line.TR10847551 bus1=BMT153446416.3,bus2=BMT7099514B.3,Phases=1,Linecode=CABA06_3_1,Length=0.028982000,Units=km
new line.TR10847558 bus1=BMT7099514B.3,bus2=BMT7099521B.3,Phases=1,Linecode=CABA06_3_1,Length=0.040987000,Units=km
new line.TR10847565 bus1=BMT7099521B.3,bus2=BMT7099528B.3,Phases=1,Linecode=CABA06_3_1,Length=0.047352000,Units=km
new line.TR10847572 bus1=BMT7099528B.3,bus2=BMT153446417.3,Phases=1,Linecode=CABA06_3_1,Length=0.036651000,Units=km
new line.TR10847579 bus1=BMT3458142B.3,bus2=BMT7099570B.3,Phases=1,Linecode=CABA06_3_1,Length=0.036378000,Units=km
new line.TR10847586 bus1=BMT7099570B.3,bus2=BMT7099577B.3,Phases=1,Linecode=CABA06_3_1,Length=0.030787000,Units=km
new line.TR10847593 bus1=BMT7099577B.3,bus2=BMT7099584B.3,Phases=1,Linecode=CABA06_3_1,Length=0.041591000,Units=km
new line.TR10847635 bus1=BMT7099584B.3,bus2=BMT150829507.3,Phases=1,Linecode=CABA06_3_1,Length=0.021388000,Units=km
new line.TR10847642 bus1=BMT150829507.3,bus2=BMT150829508.3,Phases=1,Linecode=CABA06_3_1,Length=0.022458000,Units=km
new line.TR10847670 bus1=BMT150829508.3,bus2=BMT150829509.3,Phases=1,Linecode=CAB202_3_1,Length=0.131681000,Units=km
new line.TR10925804 bus1=BMT171197032.2,bus2=BMT171197035.2,Phases=1,Linecode=CAB103_3_1,Length=0.052369000,Units=km
new line.TR10932244 bus1=BMT172463525.1.2.3,bus2=BMT172463526.1.2.3,Phases=3,Linecode=CAB102_3_3,Length=0.050889000,Units=km
new line.TR10935338 bus1=BMT153412852.1,bus2=BMT153412854.1,Phases=1,Linecode=CAB103_3_1,Length=0.021574000,Units=km
new line.TR11075219 bus1=BMT127252729.3,bus2=BMT127252750.3,Phases=1,Linecode=CAB202_3_1,Length=0.003603000,Units=km
new line.TR11075226 bus1=BMT171408700.3,bus2=BMT171408701.3,Phases=1,Linecode=CAB202_3_1,Length=0.060916000,Units=km
new line.TR11075254 bus1=BMT171408701.3,bus2=BMT171408702.3,Phases=1,Linecode=CAB202_3_1,Length=0.034035000,Units=km
new line.TR11075275 bus1=BMT171408702.3,bus2=BMT171408705.3,Phases=1,Linecode=CAB202_3_1,Length=0.195273000,Units=km
new line.TR11075408 bus1=BMT171408702.3,bus2=BMT171408706.3,Phases=1,Linecode=CAB202_3_1,Length=0.169738000,Units=km
new line.TR11078523 bus1=BMT127256677.1,bus2=BMT127256712.1,Phases=1,Linecode=CAB103_3_1,Length=0.047474000,Units=km
new line.TR11089737 bus1=BMT163521178.1.2.3,bus2=BMT153400679.1.2.3,Phases=3,Linecode=CABA06_3_3,Length=0.038872000,Units=km
new line.TR11089744 bus1=BMT163188489.1.2.3,bus2=BMT90323B.1.2.3,Phases=3,Linecode=CABA06_3_3,Length=0.034037000,Units=km
new line.TR11089751 bus1=BMT90323B.1.2.3,bus2=BMT90330B.1.2.3,Phases=3,Linecode=CABA06_3_3,Length=0.033280000,Units=km
new line.TR11090199 bus1=BMT90330B.1.2.3,bus2=BMT7309864B.1.2.3,Phases=3,Linecode=CABA06_3_3,Length=0.039598000,Units=km
new line.TR11090206 bus1=BMT7309864B.1.2.3,bus2=BMT7309878B.1.2.3,Phases=3,Linecode=CABA06_3_3,Length=0.037619000,Units=km
new line.TR11090213 bus1=BMT7309878B.1.2.3,bus2=BMT163188490.1.2.3,Phases=3,Linecode=CABA06_3_3,Length=0.041314000,Units=km
new line.TR112449 bus1=BMT71486B.1,bus2=BMT82203B.1,Phases=1,Linecode=CAB103_3_1,Length=0.036099000,Units=km
new line.TR112463 bus1=BMT154155539.1,bus2=BMT153915327.1,Phases=1,Linecode=CAB103_3_1,Length=0.027980000,Units=km
new line.TR112470 bus1=BMT127254850.1.2.3,bus2=BMT71584B.1.2.3,Phases=3,Linecode=CAB102_3_3,Length=0.036648000,Units=km
new line.TR112533 bus1=BMT71528B.1,bus2=BMT163155221.1,Phases=1,Linecode=CAB102_3_1,Length=0.035202000,Units=km
new line.TR112561 bus1=BMT71535B.1,bus2=BMT71528B.1,Phases=1,Linecode=CAB102_3_1,Length=0.035032000,Units=km
new line.TR112575 bus1=BMT163155222.1.2.3,bus2=BMT163155223.1.2.3,Phases=3,Linecode=CAB102_3_3,Length=0.035821000,Units=km
new line.TR112582 bus1=BMT163155224.1.2.3,bus2=BMT71556B.1.2.3,Phases=3,Linecode=CAB102_3_3,Length=0.026981000,Units=km
new line.TR112589 bus1=BMT71556B.1.2.3,bus2=BMT71206B.1.2.3,Phases=3,Linecode=CAB102_3_3,Length=0.028979000,Units=km
new line.TR112631 bus1=BMT71570B.1.2.3,bus2=BMT163155222.1.2.3,Phases=3,Linecode=CAB102_3_3,Length=0.040220000,Units=km
new line.TR112652 bus1=BMT163155220.1,bus2=BMT71535B.1,Phases=1,Linecode=CAB102_3_1,Length=0.036099000,Units=km
new line.TR112659 bus1=BMT163155220.1.2.3,bus2=BMT71570B.1.2.3,Phases=3,Linecode=CAB102_3_3,Length=0.024579000,Units=km
new line.TR113408 bus1=BMT71969B.1.2.3,bus2=BMT71962B.1.2.3,Phases=3,Linecode=CAB102_3_3,Length=0.021175000,Units=km
new line.TR113471 bus1=BMT157951634.1.2.3,bus2=BMT72025B.1.2.3,Phases=3,Linecode=CAB103_3_3,Length=0.033218000,Units=km
new line.TR113485 bus1=BMT72011B.1.2.3,bus2=BMT157951634.1.2.3,Phases=3,Linecode=CAB102_3_3,Length=0.037095000,Units=km
new line.TR113499 bus1=BMT72018B.1.2.3,bus2=BMT72011B.1.2.3,Phases=3,Linecode=CAB102_3_3,Length=0.031122000,Units=km
new line.TR113513 bus1=BMT72025B.1.2.3,bus2=BMT72039B.1.2.3,Phases=3,Linecode=CAB103_3_3,Length=0.037189000,Units=km
new line.TR113520 bus1=BMT72039B.1.2.3,bus2=BMT157951635.1.2.3,Phases=3,Linecode=CAB103_3_3,Length=0.037189000,Units=km
new line.TR113527 bus1=BMT157951635.1.2.3,bus2=BMT157951636.1.2.3,Phases=3,Linecode=CAB102_3_3,Length=0.023178000,Units=km
new line.TR113555 bus1=BMT157951636.2,bus2=BMT157951637.2,Phases=1,Linecode=CAB103_3_1,Length=0.032117000,Units=km
new line.TR113562 bus1=BMT157951637.2,bus2=BMT72081B.2,Phases=1,Linecode=CAB103_3_1,Length=0.033218000,Units=km
new line.TR113569 bus1=BMT157951637.2,bus2=BMT72130B.2,Phases=1,Linecode=CAB103_3_1,Length=0.035202000,Units=km
new line.TR11357760 bus1=BMT151635249.3,bus2=BMT127264454.3,Phases=1,Linecode=CAB202_3_1,Length=0.056048000,Units=km
new line.TR10314851 bus1=BMT153663088.2,bus2=BMT153663089.2,Phases=1,Linecode=CAB202_3_1,Length=0.036990000,Units=km
new line.TR10314858 bus1=BMT153663088.2,bus2=BMT153663090.2,Phases=1,Linecode=CAB103_3_1,Length=0.071264000,Units=km
new line.TR10629137 bus1=BMT165993819.2,bus2=BMT165993822.2,Phases=1,Linecode=CAB202_3_1,Length=0.161868000,Units=km
new line.TR10790480 bus1=BMT127253233.3,bus2=BMT170953342.3,Phases=1,Linecode=CAB208_3_1,Length=0.001000000,Units=km
new line.TR10790501 bus1=BMT170953342.3,bus2=BMT170953343.3,Phases=1,Linecode=CAB103_3_1,Length=0.053722000,Units=km
new line.TR112057 bus1=BMT71241B.1,bus2=BMT71234B.1,Phases=1,Linecode=CAB102_3_1,Length=0.029407000,Units=km
new line.TR112106 bus1=BMT71269B.1,bus2=BMT71276B.1,Phases=1,Linecode=CAB102_3_1,Length=0.032117000,Units=km
new line.TR112120 bus1=BMT71276B.1,bus2=BMT154155546.1,Phases=1,Linecode=CAB102_3_1,Length=0.032365000,Units=km
new line.TR112218 bus1=BMT71346B.1,bus2=BMT154155547.1,Phases=1,Linecode=CAB102_3_1,Length=0.036319000,Units=km
new line.TR112239 bus1=BMT71353B.1,bus2=BMT71346B.1,Phases=1,Linecode=CAB102_3_1,Length=0.035203000,Units=km
new line.TR112925 bus1=BMT71794B.2,bus2=BMT163155219.2,Phases=1,Linecode=CAB102_3_1,Length=0.031282000,Units=km
new line.TR112953 bus1=BMT163155217.2,bus2=BMT71794B.2,Phases=1,Linecode=CAB102_3_1,Length=0.030848000,Units=km
new line.TR112960 bus1=BMT163155217.1.2.3,bus2=BMT71822B.1.2.3,Phases=3,Linecode=CAB102_3_3,Length=0.027711000,Units=km
new line.TR112988 bus1=BMT71808B.1.2.3,bus2=BMT163155217.1.2.3,Phases=3,Linecode=CAB102_3_3,Length=0.041755000,Units=km
new line.TR113009 bus1=BMT71815B.1.2.3,bus2=BMT71808B.1.2.3,Phases=3,Linecode=CAB102_3_3,Length=0.015254000,Units=km
new line.TR113030 bus1=BMT71822B.1.2.3,bus2=BMT71829B.1.2.3,Phases=3,Linecode=CAB102_3_3,Length=0.028140000,Units=km
new line.TR113044 bus1=BMT71829B.1.2.3,bus2=BMT71591B.1.2.3,Phases=3,Linecode=CAB102_3_3,Length=0.029711000,Units=km
new line.TR113107 bus1=BMT163155215.1.2.3,bus2=BMT71913B.1.2.3,Phases=3,Linecode=CAB102_3_3,Length=0.040418000,Units=km
new line.TR113121 bus1=BMT163155214.1.2.3,bus2=BMT163155215.1.2.3,Phases=3,Linecode=CAB102_3_3,Length=0.037828000,Units=km
new line.TR113135 bus1=BMT127254780.1.2.3,bus2=BMT127254801.1.2.3,Phases=3,Linecode=CAB103_3_3,Length=0.047136000,Units=km
new line.TR113142 bus1=BMT157951630.1.2.3,bus2=BMT71948B.1.2.3,Phases=3,Linecode=CAB102_3_3,Length=0.020577000,Units=km
new line.TR11504816 bus1=BMT150410727.1,bus2=BMT7712854B.1,Phases=1,Linecode=CAB202_3_1,Length=0.125797000,Units=km
new line.TR11504844 bus1=BMT7712854B.1,bus2=BMT7712875B.1,Phases=1,Linecode=CAB202_3_1,Length=0.150520000,Units=km
new line.TR11504851 bus1=BMT7712875B.1,bus2=BMT150410728.1,Phases=1,Linecode=CAB202_3_1,Length=0.031996000,Units=km
new line.TR11504921 bus1=BMT4644047B.1,bus2=BMT7712917B.1,Phases=1,Linecode=CAB202_3_1,Length=0.109994000,Units=km
new line.TR11504949 bus1=BMT7712931B.1,bus2=BMT7712917B.1,Phases=1,Linecode=CAB202_3_1,Length=0.087180000,Units=km
new line.TR11504956 bus1=BMT150400636.1,bus2=BMT7712952B.1,Phases=1,Linecode=CABA06_3_1,Length=0.029051000,Units=km
new line.TR11504963 bus1=BMT7712952B.1,bus2=BMT7712959B.1,Phases=1,Linecode=CABA06_3_1,Length=0.030444000,Units=km
new line.TR11504970 bus1=BMT7712959B.1,bus2=BMT7712966B.1,Phases=1,Linecode=CABA06_3_1,Length=0.030065000,Units=km
new line.TR11504977 bus1=BMT7712966B.1,bus2=BMT7712973B.1,Phases=1,Linecode=CABA06_3_1,Length=0.030346000,Units=km
new line.TR11504984 bus1=BMT7712973B.1,bus2=BMT7712980B.1,Phases=1,Linecode=CABA06_3_1,Length=0.038304000,Units=km
new line.TR11504991 bus1=BMT7712980B.1,bus2=BMT7712987B.1,Phases=1,Linecode=CABA06_3_1,Length=0.030575000,Units=km
new line.TR11504998 bus1=BMT7712987B.1,bus2=BMT7712994B.1,Phases=1,Linecode=CABA06_3_1,Length=0.030395000,Units=km
new line.TR11505005 bus1=BMT7712994B.1,bus2=BMT162034198.1,Phases=1,Linecode=CABA06_3_1,Length=0.039193000,Units=km
new line.TR11505012 bus1=BMT127270677.1,bus2=BMT150410731.1,Phases=1,Linecode=CAB103_3_1,Length=0.038304000,Units=km
new line.TR11505019 bus1=BMT150410731.1,bus2=BMT150410730.1,Phases=1,Linecode=CAB202_3_1,Length=0.021827000,Units=km
new line.TR11505040 bus1=BMT7713022B.1,bus2=BMT150410730.1,Phases=1,Linecode=CAB204_3_1,Length=0.213976000,Units=km
new line.TR11505047 bus1=BMT150410728.1,bus2=BMT7713029B.1,Phases=1,Linecode=CAB204_3_1,Length=0.143745000,Units=km
new line.TR11505054 bus1=BMT7713022B.1,bus2=BMT7713029B.1,Phases=1,Linecode=CAB204_3_1,Length=0.055508000,Units=km
new line.TR11505061 bus1=BMT150400636.1,bus2=BMT162034199.1,Phases=1,Linecode=CABA06_3_1,Length=0.039422000,Units=km
new line.TR11505068 bus1=BMT162034199.1,bus2=BMT7713043B.1,Phases=1,Linecode=CABA06_3_1,Length=0.030065000,Units=km
new line.TR11505075 bus1=BMT7713043B.1,bus2=BMT7713050B.1,Phases=1,Linecode=CABA06_3_1,Length=0.030346000,Units=km
new line.TR11505082 bus1=BMT7713050B.1,bus2=BMT162034200.1,Phases=1,Linecode=CABA06_3_1,Length=0.032553000,Units=km
new line.TR11505124 bus1=BMT162034200.1,bus2=BMT162034201.1,Phases=1,Linecode=CABA06_3_1,Length=0.044120000,Units=km
new line.TR11505145 bus1=BMT162034201.1,bus2=BMT7713078B.1,Phases=1,Linecode=CABA06_3_1,Length=0.033281000,Units=km
new line.TR11505152 bus1=BMT7713078B.1,bus2=BMT7713085B.1,Phases=1,Linecode=CABA06_3_1,Length=0.031381000,Units=km
new line.TR11505159 bus1=BMT7713085B.1,bus2=BMT7713092B.1,Phases=1,Linecode=CABA06_3_1,Length=0.023416000,Units=km
new line.TR11505166 bus1=BMT7713092B.1,bus2=BMT7713113B.1,Phases=1,Linecode=CABA06_3_1,Length=0.009214000,Units=km
new line.TR11505173 bus1=BMT7713113B.1,bus2=BMT7713127B.1,Phases=1,Linecode=CABA06_3_1,Length=0.034184000,Units=km
new line.TR11505180 bus1=BMT7713127B.1,bus2=BMT7713134B.1,Phases=1,Linecode=CABA06_3_1,Length=0.032782000,Units=km
new line.TR11505187 bus1=BMT162034201.1,bus2=BMT7713141B.1,Phases=1,Linecode=CABA06_3_1,Length=0.030657000,Units=km
new line.TR11505194 bus1=BMT7713141B.1,bus2=BMT7713148B.1,Phases=1,Linecode=CABA06_3_1,Length=0.030065000,Units=km
new line.TR11505201 bus1=BMT7713148B.1,bus2=BMT7713155B.1,Phases=1,Linecode=CABA06_3_1,Length=0.029102000,Units=km
new line.TR11505208 bus1=BMT7713155B.1,bus2=BMT7713162B.1,Phases=1,Linecode=CABA06_3_1,Length=0.030131000,Units=km
new line.TR11505215 bus1=BMT7713162B.1,bus2=BMT7713176B.1,Phases=1,Linecode=CABA06_3_1,Length=0.029714000,Units=km
new line.TR11505222 bus1=BMT7713176B.1,bus2=BMT7713183B.1,Phases=1,Linecode=CABA06_3_1,Length=0.030592000,Units=km
new line.TR11505229 bus1=BMT7713183B.1,bus2=BMT7713190B.1,Phases=1,Linecode=CABA06_3_1,Length=0.031381000,Units=km
new line.TR10023357 bus1=BMT131537422.1.2.3,bus2=BMT131537429.1.2.3,Phases=3,Linecode=CAB103_3_3,Length=0.052915000,Units=km
new line.TR10178526 bus1=BMT6322864B.3,bus2=BMT127276333.3,Phases=1,Linecode=CAB103_3_1,Length=0.041019000,Units=km
new line.TR10376276 bus1=BMT164817390.1,bus2=BMT6631417B.1,Phases=1,Linecode=CAB202_3_1,Length=0.110821000,Units=km
new line.TR10376283 bus1=BMT6631417B.1,bus2=BMT6631452B.1,Phases=1,Linecode=CAB202_3_1,Length=0.117882000,Units=km
new line.TR10376332 bus1=BMT6631452B.1,bus2=BMT164817392.1,Phases=1,Linecode=CAB202_3_1,Length=0.122307000,Units=km
new line.TR10376871 bus1=BMT163658128.2,bus2=BMT163658129.2,Phases=1,Linecode=CAB103_3_1,Length=0.072057000,Units=km
new line.TR10781079 bus1=BMT172169621.1,bus2=BMT172169624.1,Phases=1,Linecode=CAB103_3_1,Length=0.044884000,Units=km
new line.TR111168 bus1=BMT70842B.1.2.3,bus2=BMT70877B.1.2.3,Phases=3,Linecode=CABA06_3_3,Length=0.023070000,Units=km
new line.TR111189 bus1=BMT70849B.2,bus2=BMT70856B.2,Phases=1,Linecode=CAB102_3_1,Length=0.018015000,Units=km
new line.TR111203 bus1=BMT70856B.2,bus2=BMT70891B.2,Phases=1,Linecode=CAB102_3_1,Length=0.034903000,Units=km
new line.TR111252 bus1=BMT70877B.1.2.3,bus2=BMT70884B.1.2.3,Phases=3,Linecode=CABA06_3_3,Length=0.030654000,Units=km
new line.TR111266 bus1=BMT70884B.1.2.3,bus2=BMT71017B.1.2.3,Phases=3,Linecode=CABA06_3_3,Length=0.035709000,Units=km
new line.TR111280 bus1=BMT70891B.2,bus2=BMT70898B.2,Phases=1,Linecode=CAB102_3_1,Length=0.034903000,Units=km
new line.TR111294 bus1=BMT70898B.2,bus2=BMT70912B.2,Phases=1,Linecode=CAB102_3_1,Length=0.026664000,Units=km
new line.TR111315 bus1=BMT70912B.2,bus2=BMT160002019.2,Phases=1,Linecode=CAB102_3_1,Length=0.036852000,Units=km
new line.TR112687 bus1=BMT71584B.1.2.3,bus2=BMT163155220.1.2.3,Phases=3,Linecode=CAB102_3_3,Length=0.027293000,Units=km
new line.TR112708 bus1=BMT71591B.1.2.3,bus2=BMT127254850.1.2.3,Phases=3,Linecode=CAB102_3_3,Length=0.034860000,Units=km
new line.TR112757 bus1=BMT163155226.1.2.3,bus2=BMT71668B.1.2.3,Phases=3,Linecode=CAB102_3_3,Length=0.034107000,Units=km
new line.TR112771 bus1=BMT71640B.1.2.3,bus2=BMT163155226.1.2.3,Phases=3,Linecode=CAB102_3_3,Length=0.033975000,Units=km
new line.TR112785 bus1=BMT71647B.1.2.3,bus2=BMT71640B.1.2.3,Phases=3,Linecode=CAB102_3_3,Length=0.034457000,Units=km
new line.TR112799 bus1=BMT71654B.1.2.3,bus2=BMT71647B.1.2.3,Phases=3,Linecode=CAB102_3_3,Length=0.038051000,Units=km
new line.TR112806 bus1=BMT71661B.1.2.3,bus2=BMT71654B.1.2.3,Phases=3,Linecode=CAB102_3_3,Length=0.038051000,Units=km
new line.TR112813 bus1=BMT71668B.1.2.3,bus2=BMT71675B.1.2.3,Phases=3,Linecode=CAB102_3_3,Length=0.030865000,Units=km
new line.TR11282468 bus1=BMT172162853.1,bus2=BMT7494531B.1,Phases=1,Linecode=CAB202_3_1,Length=0.046013000,Units=km
new line.TR11282475 bus1=BMT7494531B.1,bus2=BMT172162855.1,Phases=1,Linecode=CAB202_3_1,Length=0.033978000,Units=km
new line.TR11282482 bus1=BMT172162855.1,bus2=BMT7494559B.1,Phases=1,Linecode=CAB202_3_1,Length=0.048352000,Units=km
new line.TR11282489 bus1=BMT7494559B.1,bus2=BMT7494573B.1,Phases=1,Linecode=CAB202_3_1,Length=0.029595000,Units=km
new line.TR11282496 bus1=BMT7494573B.1,bus2=BMT7494587B.1,Phases=1,Linecode=CAB202_3_1,Length=0.094784000,Units=km
new line.TR11282503 bus1=BMT7494587B.1,bus2=BMT7494615B.1,Phases=1,Linecode=CAB202_3_1,Length=0.088541000,Units=km
new line.TR11282510 bus1=BMT7494615B.1,bus2=BMT7494622B.1,Phases=1,Linecode=CAB202_3_1,Length=0.135711000,Units=km
new line.TR11282517 bus1=BMT7494622B.1,bus2=BMT172162856.1,Phases=1,Linecode=CAB202_3_1,Length=0.033265000,Units=km
new line.TR11282524 bus1=BMT172162856.1,bus2=BMT7494650B.1,Phases=1,Linecode=CAB202_3_1,Length=0.049977000,Units=km
new line.TR112827 bus1=BMT71675B.1.2.3,bus2=BMT71682B.1.2.3,Phases=3,Linecode=CAB102_3_3,Length=0.032226000,Units=km
new line.TR11282706 bus1=BMT172162858.1,bus2=BMT172162859.1,Phases=1,Linecode=CAB202_3_1,Length=0.009994000,Units=km
new line.TR112834 bus1=BMT71682B.1.2.3,bus2=BMT71689B.1.2.3,Phases=3,Linecode=CAB102_3_3,Length=0.027275000,Units=km
new line.TR112841 bus1=BMT71689B.1.2.3,bus2=BMT71696B.1.2.3,Phases=3,Linecode=CAB102_3_3,Length=0.024169000,Units=km
new line.TR112848 bus1=BMT71696B.1.2.3,bus2=BMT71780B.1.2.3,Phases=3,Linecode=CAB102_3_3,Length=0.017076000,Units=km
new line.TR11285135 bus1=BMT172162855.1,bus2=BMT7494888B.1,Phases=1,Linecode=CAB103_3_1,Length=0.015287000,Units=km
new line.TR11285142 bus1=BMT7494888B.1,bus2=BMT172162857.1,Phases=1,Linecode=CAB103_3_1,Length=0.008241000,Units=km
new line.TR11285177 bus1=BMT172162858.1,bus2=BMT172162860.1,Phases=1,Linecode=CAB202_3_1,Length=0.087992000,Units=km
new line.TR11285226 bus1=BMT7494650B.1,bus2=BMT172162858.1,Phases=1,Linecode=CAB202_3_1,Length=0.225459000,Units=km
new line.TR112876 bus1=BMT71766B.1.2.3,bus2=BMT163155227.1.2.3,Phases=3,Linecode=CAB102_3_3,Length=0.028633000,Units=km
new line.TR112883 bus1=BMT71773B.1.2.3,bus2=BMT71766B.1.2.3,Phases=3,Linecode=CAB102_3_3,Length=0.035751000,Units=km
new line.TR112897 bus1=BMT71780B.1.2.3,bus2=BMT71773B.1.2.3,Phases=3,Linecode=CAB102_3_3,Length=0.032534000,Units=km
new line.TR114612 bus1=BMT72711B.1.2.3,bus2=BMT169977881.1.2.3,Phases=3,Linecode=CAB102_3_3,Length=0.031883000,Units=km
new line.TR114640 bus1=BMT72732B.1.2.3,bus2=BMT72711B.1.2.3,Phases=3,Linecode=CAB102_3_3,Length=0.031742000,Units=km
new line.TR114703 bus1=BMT169977878.1.2.3,bus2=BMT72774B.1.2.3,Phases=3,Linecode=CAB102_3_3,Length=0.033975000,Units=km
new line.TR11471069 bus1=BMT166821687.1.2.3,bus2=BMT166821689.1.2.3,Phases=3,Linecode=CAB202_3_3,Length=0.306972000,Units=km
new line.TR11471076 bus1=BMT166821689.1.2.3,bus2=BMT2100177B.1.2.3,Phases=3,Linecode=CAB202_3_3,Length=0.040766000,Units=km
new line.TR11471496 bus1=BMT163811872.1.2.3,bus2=BMT7677469B.1.2.3,Phases=3,Linecode=CABA06_3_3,Length=0.044153000,Units=km
new line.TR11471510 bus1=BMT7677469B.1.2.3,bus2=BMT7677476B.1.2.3,Phases=3,Linecode=CABA06_3_3,Length=0.060492000,Units=km
new line.TR11471545 bus1=BMT166821683.1.2.3,bus2=BMT4664662B.1.2.3,Phases=3,Linecode=CAB202_3_3,Length=0.122704000,Units=km
new line.TR11471552 bus1=BMT7677476B.1.2.3,bus2=BMT7677532B.1.2.3,Phases=3,Linecode=CABA06_3_3,Length=0.036322000,Units=km
new line.TR11471566 bus1=BMT7677532B.1.2.3,bus2=BMT7677546B.1.2.3,Phases=3,Linecode=CABA06_3_3,Length=0.061620000,Units=km
new line.TR11471650 bus1=BMT166821690.1.2.3,bus2=BMT7677616B.1.2.3,Phases=3,Linecode=CAB202_3_3,Length=0.053724000,Units=km
new line.TR11471657 bus1=BMT7677616B.1.2.3,bus2=BMT127271643.1.2.3,Phases=3,Linecode=CAB202_3_3,Length=0.041083000,Units=km
new line.TR11471678 bus1=BMT7677623B.1.2.3,bus2=BMT166821690.1.2.3,Phases=3,Linecode=CAB202_3_3,Length=0.040495000,Units=km
new line.TR11505264 bus1=BMT7713190B.1,bus2=BMT7713246B.1,Phases=1,Linecode=CABA06_3_1,Length=0.030214000,Units=km
new line.TR11505271 bus1=BMT7713246B.1,bus2=BMT7713316B.1,Phases=1,Linecode=CABA06_3_1,Length=0.029511000,Units=km
new line.TR115053 bus1=BMT170407734.1.2.3,bus2=BMT73012B.1.2.3,Phases=3,Linecode=CAB102_3_3,Length=0.010043000,Units=km
new line.TR11505306 bus1=BMT7713323B.1,bus2=BMT162034203.1,Phases=1,Linecode=CABA06_3_1,Length=0.029998000,Units=km
new line.TR11505313 bus1=BMT162034203.1,bus2=BMT162034204.1,Phases=1,Linecode=CABA06_3_1,Length=0.031045000,Units=km
new line.TR11505320 bus1=BMT162034204.1,bus2=BMT7713379B.1,Phases=1,Linecode=CABA06_3_1,Length=0.028827000,Units=km
new line.TR11505327 bus1=BMT7713134B.1,bus2=BMT7713463B.1,Phases=1,Linecode=CABA06_3_1,Length=0.030395000,Units=km
new line.TR11505334 bus1=BMT7713463B.1,bus2=BMT7713477B.1,Phases=1,Linecode=CABA06_3_1,Length=0.030575000,Units=km
new line.TR11505341 bus1=BMT7713477B.1,bus2=BMT7713484B.1,Phases=1,Linecode=CABA06_3_1,Length=0.033505000,Units=km
new line.TR11505348 bus1=BMT7713484B.1,bus2=BMT7713491B.1,Phases=1,Linecode=CABA06_3_1,Length=0.011655000,Units=km
new line.TR11505355 bus1=BMT7713491B.1,bus2=BMT7713498B.1,Phases=1,Linecode=CABA06_3_1,Length=0.042459000,Units=km
new line.TR11505362 bus1=BMT7713498B.1,bus2=BMT162034202.1,Phases=1,Linecode=CABA06_3_1,Length=0.041157000,Units=km
new line.TR11506307 bus1=BMT162034202.1,bus2=BMT7713526B.1,Phases=1,Linecode=CABA06_3_1,Length=0.041567000,Units=km
new line.TR11506349 bus1=BMT7713526B.1,bus2=BMT7713932B.1,Phases=1,Linecode=CABA06_3_1,Length=0.041459000,Units=km
new line.TR11506356 bus1=BMT7713932B.1,bus2=BMT7713967B.1,Phases=1,Linecode=CABA06_3_1,Length=0.037098000,Units=km
new line.TR11506363 bus1=BMT7713967B.1,bus2=BMT7713981B.1,Phases=1,Linecode=CABA06_3_1,Length=0.039938000,Units=km
new line.TR11506391 bus1=BMT7713981B.1,bus2=BMT7714002B.1,Phases=1,Linecode=CABA06_3_1,Length=0.035206000,Units=km
new line.TR11506398 bus1=BMT7714002B.1,bus2=BMT162034208.1,Phases=1,Linecode=CABA06_3_1,Length=0.025479000,Units=km
new line.TR11506405 bus1=BMT162034208.1,bus2=BMT162034209.1,Phases=1,Linecode=CABA06_3_1,Length=0.030461000,Units=km
new line.TR11506727 bus1=BMT7713379B.1,bus2=BMT7714569B.1,Phases=1,Linecode=CABA06_3_1,Length=0.030510000,Units=km
new line.TR11506734 bus1=BMT7714569B.1,bus2=BMT7714562B.1,Phases=1,Linecode=CABA06_3_1,Length=0.031045000,Units=km
new line.TR11506741 bus1=BMT7714562B.1,bus2=BMT162034205.1,Phases=1,Linecode=CABA06_3_1,Length=0.030510000,Units=km
new line.TR11506748 bus1=BMT162034205.1,bus2=BMT162034206.1,Phases=1,Linecode=CABA06_3_1,Length=0.030868000,Units=km
new line.TR11506755 bus1=BMT162034206.1,bus2=BMT7714541B.1,Phases=1,Linecode=CABA06_3_1,Length=0.030787000,Units=km
new line.TR11506762 bus1=BMT7714541B.1,bus2=BMT7714534B.1,Phases=1,Linecode=CABA06_3_1,Length=0.030787000,Units=km
new line.TR11506769 bus1=BMT7714534B.1,bus2=BMT7714527B.1,Phases=1,Linecode=CABA06_3_1,Length=0.030065000,Units=km
new line.TR11506776 bus1=BMT7714527B.1,bus2=BMT162034207.1,Phases=1,Linecode=CABA06_3_1,Length=0.031556000,Units=km
new line.TR11507063 bus1=BMT7713323B.1,bus2=BMT7714800B.1,Phases=1,Linecode=CABA06_3_1,Length=0.029663000,Units=km
new line.TR11507077 bus1=BMT7714800B.1,bus2=BMT7714807B.1,Phases=1,Linecode=CABA06_3_1,Length=0.024985000,Units=km
...
