2024_89_CemigReconfigurationCases/1_AlimsCemig/INPD215/INPD215SegmentosBT.dss
new line.10639777 bus1=BBT2809060.1.2.0,bus2=BBT2809067.1.2.0,Phases=2,Linecode=BT518_BT518_7_2_1,Length=0.000500000,Units=km
new line.10639966 bus1=BBT2809018.1.2.0,bus2=BBT2809025.1.2.0,Phases=2,Linecode=BT508_BT508_7_2_1,Length=0.000500000,Units=km
new line.10640057 bus1=BBT2808990.1.2.0,bus2=BBT2808997.1.2.0,Phases=2,Linecode=BT518_BT518_7_2_1,Length=0.000500000,Units=km
new line.10640400 bus1=BBT2808920.1.0,bus2=BBT2808927.1.0,Phases=1,Linecode=BT816_BT816_4_1_2,Length=0.095263000,Units=km
new line.10640568 bus1=BBT2808962.2.0,bus2=BBT2808969.2.0,Phases=1,Linecode=BT816_BT816_4_1_2,Length=0.036208000,Units=km
new line.11281656 bus1=BBT2966273.1.2.3.0,bus2=BBT2966280.1.2.3.0,Phases=3,Linecode=BT513_BT513_7_3_1,Length=0.000500000,Units=km
new line.11302334 bus1=BBT2970312.1.2.0,bus2=BBT2970326.1.2.0,Phases=2,Linecode=BT807_BT807_4_2_3,Length=0.032550000,Units=km
new line.11302369 bus1=BBT2970326.1.2.0,bus2=BBT2970333.1.2.0,Phases=2,Linecode=BT807_BT807_4_2_3,Length=0.038869000,Units=km
new line.11536540 bus1=BBT3032927.1.2.3.0,bus2=BBT3784048.1.2.3.0,Phases=3,Linecode=BT803_BT803_4_3_4,Length=0.039332000,Units=km
new line.11536547 bus1=BBT3032934.1.2.3.0,bus2=BBT3032927.1.2.3.0,Phases=3,Linecode=BT518_BT518_7_3_1,Length=0.000500000,Units=km
new line.11536554 bus1=BBT3032927.1.2.3.0,bus2=BBT3033039.1.2.3.0,Phases=3,Linecode=BT803_BT803_4_3_4,Length=0.035824000,Units=km
new line.11536596 bus1=BBT3033039.1.2.3.0,bus2=BBT3033060.1.2.3.0,Phases=3,Linecode=BT803_BT803_4_3_4,Length=0.035824000,Units=km
new line.11536610 bus1=BBT3033060.1.2.3.0,bus2=BBT3033067.1.2.3.0,Phases=3,Linecode=BT803_BT803_4_3_4,Length=0.035488000,Units=km
new line.11536631 bus1=BBT3033067.1.2.3.0,bus2=BBT3033088.1.2.3.0,Phases=3,Linecode=BT803_BT803_4_3_4,Length=0.034460000,Units=km
new line.11539095 bus1=BBT3033809.1.2.3.0,bus2=BBT170660123.1.2.3.0,Phases=3,Linecode=BT803_BT803_4_3_4,Length=0.016989000,Units=km
new line.11539123 bus1=BBT3033802.1.2.3.0,bus2=BBT3033809.1.2.3.0,Phases=3,Linecode=BT803_BT803_4_3_4,Length=0.020236000,Units=km
new line.11539130 bus1=BBT3033802.1.2.3.0,bus2=BBT3033823.1.2.3.0,Phases=3,Linecode=BT803_BT803_4_3_4,Length=0.042423000,Units=km
new line.11539172 bus1=BBT3033823.1.2.3.0,bus2=BBT3033830.1.2.3.0,Phases=3,Linecode=BT803_BT803_4_3_4,Length=0.042269000,Units=km
new line.11539221 bus1=BBT3033767.1.2.3.0,bus2=BBT3033802.1.2.3.0,Phases=3,Linecode=BT803_BT803_4_3_4,Length=0.044255000,Units=km
new line.11539228 bus1=BBT3033760.1.2.3.0,bus2=BBT3033767.1.2.3.0,Phases=3,Linecode=BT518_BT518_7_3_1,Length=0.000500000,Units=km
new line.11539235 bus1=BBT3033767.1.2.3.0,bus2=BBT3033872.1.2.3.0,Phases=3,Linecode=BT803_BT803_4_3_4,Length=0.045981000,Units=km
new line.11539291 bus1=BBT3033970.1.2.3.0,bus2=BBT3033991.1.2.3.0,Phases=3,Linecode=BT803_BT803_4_3_4,Length=0.043019000,Units=km
new line.11539312 bus1=BBT3033949.1.2.3.0,bus2=BBT3033970.1.2.3.0,Phases=3,Linecode=BT803_BT803_4_3_4,Length=0.043903000,Units=km
new line.11539333 bus1=BBT3033872.1.2.3.0,bus2=BBT3033879.1.2.3.0,Phases=3,Linecode=BT803_BT803_4_3_4,Length=0.048342000,Units=km
new line.11539375 bus1=BBT3033830.1.2.3.0,bus2=BBT3033837.1.2.3.0,Phases=3,Linecode=BT803_BT803_4_3_4,Length=0.042163000,Units=km
new line.11539410 bus1=BBT3033879.1.2.3.0,bus2=BBT3033886.1.2.3.0,Phases=3,Linecode=BT803_BT803_4_3_4,Length=0.043903000,Units=km
new line.11539431 bus1=BBT3033886.1.2.3.0,bus2=BBT3033893.1.2.3.0,Phases=3,Linecode=BT803_BT803_4_3_4,Length=0.042020000,Units=km
new line.11539466 bus1=BBT3033928.1.2.3.0,bus2=BBT3033949.1.2.3.0,Phases=3,Linecode=BT803_BT803_4_3_4,Length=0.041746000,Units=km
new line.11539487 bus1=BBT3033921.1.2.3.0,bus2=BBT3033928.1.2.3.0,Phases=3,Linecode=BT803_BT803_4_3_4,Length=0.045676000,Units=km
new line.11539494 bus1=BBT3033914.1.2.3.0,bus2=BBT3033921.1.2.3.0,Phases=3,Linecode=BT518_BT518_7_3_1,Length=0.000500000,Units=km
new line.11539501 bus1=BBT3033921.1.2.3.0,bus2=BBT3034012.1.2.3.0,Phases=3,Linecode=BT803_BT803_4_3_4,Length=0.034183000,Units=km
new line.11539522 bus1=BBT3034012.1.2.3.0,bus2=BBT3034019.1.2.3.0,Phases=3,Linecode=BT803_BT803_4_3_4,Length=0.025440000,Units=km
new line.11539550 bus1=BBT3034019.1.2.3.0,bus2=BBT3034026.1.2.3.0,Phases=3,Linecode=BT803_BT803_4_3_4,Length=0.037178000,Units=km
new line.11539571 bus1=BBT3034026.1.2.3.0,bus2=BBT3034040.1.2.3.0,Phases=3,Linecode=BT803_BT803_4_3_4,Length=0.042774000,Units=km
new line.11958444 bus1=BBT3151843.1.2.0,bus2=BBT3151850.1.2.0,Phases=2,Linecode=BT106_BT106_7_2_1,Length=0.035754000,Units=km
new line.11958472 bus1=BBT3151829.1.2.0,bus2=BBT3151836.1.2.0,Phases=2,Linecode=BT106_BT106_7_2_1,Length=0.020211000,Units=km
new line.11958500 bus1=BBT3151815.1.2.0,bus2=BBT3151829.1.2.0,Phases=2,Linecode=BT106_BT106_7_2_1,Length=0.029997000,Units=km
new line.11958521 bus1=BBT3151808.1.2.0,bus2=BBT3151815.1.2.0,Phases=2,Linecode=BT108_BT107_7_2_1,Length=0.025044000,Units=km
...